*Heading
*Node
1,	0.000000e+00,	0.000000e+00
2,	2.500000e-03,	0.000000e+00
3,	5.000000e-03,	0.000000e+00
4,	7.500000e-03,	0.000000e+00
5,	1.000000e-02,	0.000000e+00
6,	1.250000e-02,	0.000000e+00
7,	1.500000e-02,	0.000000e+00
8,	1.750000e-02,	0.000000e+00
9,	2.000000e-02,	0.000000e+00
10,	2.250000e-02,	0.000000e+00
11,	2.500000e-02,	0.000000e+00
12,	2.750000e-02,	0.000000e+00
13,	3.000000e-02,	0.000000e+00
14,	3.250000e-02,	0.000000e+00
15,	3.500000e-02,	0.000000e+00
16,	3.750000e-02,	0.000000e+00
17,	4.000000e-02,	0.000000e+00
18,	4.250000e-02,	0.000000e+00
19,	4.500000e-02,	0.000000e+00
20,	4.750000e-02,	0.000000e+00
** ... 2582 like lines cut
*Element, type=CPE4R
1,	52,	1,	2,	53,	
2,	53,	2,	3,	54,	
3,	54,	3,	4,	55,	
4,	55,	4,	5,	56,	
5,	56,	5,	6,	57,	
6,	57,	6,	7,	58,	
7,	58,	7,	8,	59,	
8,	59,	8,	9,	60,	
9,	60,	9,	10,	61,	
10,	61,	10,	11,	62,	
11,	62,	11,	12,	63,	
12,	63,	12,	13,	64,	
13,	64,	13,	14,	65,	
14,	65,	14,	15,	66,	
15,	66,	15,	16,	67,	
16,	67,	16,	17,	68,	
17,	68,	17,	18,	69,	
18,	69,	18,	19,	70,	
19,	70,	19,	20,	71,	
20,	71,	20,	21,	72,	
** ... 2480 like lines cut
*Elset, elset=SET-0
6
55
56
57
97
106
124
146
147
148
154
162
173
174
175
197
203
204
205
211
** ... 384 like lines cut
*Solid Section, elset=SET-0, material=MAT-0
1.
*Material, name=MAT-0
*Density
2.650000e-15
*Elastic
5.000000e+05, 1.500000e-01
*Elset, elset=SET-1
1
2
3
4
5
7
8
9
10
11
12
13
14
15
16
17
18
19
20
21
** ... 2047 like lines cut
*Solid Section, elset=SET-1, material=MAT-1
1.
*Material, name=MAT-1
*Density
1.180000e-15
*Elastic
1.850000e+00, 3.500000e-01
*Viscoelastic, frequency=TABULAR
1.664865e-01, 0.000000e+00, 1.664865e-01, 0.000000e+00, 3.735114e-09
1.886486e-01, -3.783784e-02, 1.886486e-01, -3.783784e-02, 5.662013e-09
1.918919e-01, -7.027027e-02, 1.918919e-01, -7.027027e-02, 8.552291e-09
1.918919e-01, -1.027027e-01, 1.918919e-01, -1.027027e-01, 1.295444e-08
1.918919e-01, -1.243243e-01, 1.918919e-01, -1.243243e-01, 1.502207e-08
1.918919e-01, -1.405405e-01, 1.918919e-01, -1.405405e-01, 1.959127e-08
1.918919e-01, -1.567568e-01, 1.918919e-01, -1.567568e-01, 2.282183e-08
1.929730e-01, -1.621622e-01, 1.929730e-01, -1.621622e-01, 2.955564e-08
1.935135e-01, -1.675676e-01, 1.935135e-01, -1.675676e-01, 3.460337e-08
1.956757e-01, -1.675676e-01, 1.956757e-01, -1.675676e-01, 4.483909e-08
1.956757e-01, -1.729730e-01, 1.956757e-01, -1.729730e-01, 5.230987e-08
1.972973e-01, -1.729730e-01, 1.972973e-01, -1.729730e-01, 6.822076e-08
2.081081e-01, -1.891892e-01, 2.081081e-01, -1.891892e-01, 7.888970e-08
2.097297e-01, -2.054054e-01, 2.097297e-01, -2.054054e-01, 1.029187e-07
2.102703e-01, -2.054054e-01, 2.102703e-01, -2.054054e-01, 1.191002e-07
2.102703e-01, -2.486486e-01, 2.102703e-01, -2.486486e-01, 1.422929e-07
2.102703e-01, -2.540541e-01, 2.102703e-01, -2.540541e-01, 1.561388e-07
2.102703e-01, -2.540541e-01, 2.102703e-01, -2.540541e-01, 1.804756e-07
2.081081e-01, -2.540541e-01, 2.081081e-01, -2.540541e-01, 2.153377e-07
2.043243e-01, -2.810811e-01, 2.043243e-01, -2.810811e-01, 2.356698e-07
** ... 1101 like lines cut
*Elset, elset=SET-2
91
140
189
190
191
239
240
241
290
291
341
342
560
609
610
611
660
661
662
711
** ... 9 like lines cut
*Solid Section, elset=SET-2, material=MAT-2
1.
*Material, name=MAT-2
*Density
1.180000e-15
*Elastic
1.850000e+00, 3.500000e-01
*Viscoelastic, frequency=TABULAR
1.664865e-01, 0.000000e+00, 1.664865e-01, 0.000000e+00, 4.500000e-03
1.886486e-01, -3.783784e-02, 1.886486e-01, -3.783784e-02, 5.670000e-03
1.918919e-01, -7.027027e-02, 1.918919e-01, -7.027027e-02, 7.130000e-03
1.918919e-01, -1.027027e-01, 1.918919e-01, -1.027027e-01, 8.980000e-03
1.918919e-01, -1.243243e-01, 1.918919e-01, -1.243243e-01, 9.750000e-03
1.918919e-01, -1.405405e-01, 1.918919e-01, -1.405405e-01, 1.130000e-02
1.918919e-01, -1.567568e-01, 1.918919e-01, -1.567568e-01, 1.230000e-02
1.929730e-01, -1.621622e-01, 1.929730e-01, -1.621622e-01, 1.420000e-02
1.935135e-01, -1.675676e-01, 1.935135e-01, -1.675676e-01, 1.550000e-02
1.956757e-01, -1.675676e-01, 1.956757e-01, -1.675676e-01, 1.790000e-02
1.956757e-01, -1.729730e-01, 1.956757e-01, -1.729730e-01, 1.950000e-02
1.972973e-01, -1.729730e-01, 1.972973e-01, -1.729730e-01, 2.260000e-02
2.081081e-01, -1.891892e-01, 2.081081e-01, -1.891892e-01, 2.450000e-02
2.097297e-01, -2.054054e-01, 2.097297e-01, -2.054054e-01, 2.840000e-02
2.102703e-01, -2.054054e-01, 2.102703e-01, -2.054054e-01, 3.080000e-02
2.102703e-01, -2.486486e-01, 2.102703e-01, -2.486486e-01, 3.400000e-02
2.102703e-01, -2.540541e-01, 2.102703e-01, -2.540541e-01, 3.580000e-02
2.102703e-01, -2.540541e-01, 2.102703e-01, -2.540541e-01, 3.880000e-02
2.081081e-01, -2.540541e-01, 2.081081e-01, -2.540541e-01, 4.280000e-02
2.043243e-01, -2.810811e-01, 2.043243e-01, -2.810811e-01, 4.500000e-02
** ... 1101 like lines cut
*Nset, nset=RightSurface
102
153
204
255
306
357
408
459
510
561
612
663
714
765
816
867
918
969
1020
1071
** ... 29 like lines cut
*Equation
3
52, 1, 1.
102, 1, -1.
2602, 1, 1.
*Equation
2
52, 2, 1.
102, 2, -1.
*Equation
3
103, 1, 1.
153, 1, -1.
2602, 1, 1.
*Equation
2
103, 2, 1.
153, 2, -1.
*Equation
3
154, 1, 1.
204, 1, -1.
2602, 1, 1.
*Equation
2
154, 2, 1.
204, 2, -1.
*Equation
3
205, 1, 1.
255, 1, -1.
2602, 1, 1.
*Equation
2
205, 2, 1.
255, 2, -1.
*Equation
3
256, 1, 1.
306, 1, -1.
2602, 1, 1.
*Equation
2
256, 2, 1.
306, 2, -1.
*Equation
3
307, 1, 1.
357, 1, -1.
2602, 1, 1.
*Equation
2
307, 2, 1.
357, 2, -1.
*Equation
3
358, 1, 1.
408, 1, -1.
2602, 1, 1.
*Equation
2
358, 2, 1.
408, 2, -1.
*Equation
3
409, 1, 1.
459, 1, -1.
2602, 1, 1.
*Equation
2
409, 2, 1.
459, 2, -1.
*Equation
3
460, 1, 1.
510, 1, -1.
2602, 1, 1.
*Equation
2
460, 2, 1.
510, 2, -1.
*Equation
3
511, 1, 1.
561, 1, -1.
2602, 1, 1.
*Equation
2
511, 2, 1.
561, 2, -1.
*Equation
3
562, 1, 1.
612, 1, -1.
2602, 1, 1.
*Equation
2
562, 2, 1.
612, 2, -1.
*Equation
3
613, 1, 1.
663, 1, -1.
2602, 1, 1.
*Equation
2
613, 2, 1.
663, 2, -1.
*Equation
3
664, 1, 1.
714, 1, -1.
2602, 1, 1.
*Equation
2
664, 2, 1.
714, 2, -1.
*Equation
3
715, 1, 1.
765, 1, -1.
2602, 1, 1.
*Equation
2
715, 2, 1.
765, 2, -1.
*Equation
3
766, 1, 1.
816, 1, -1.
2602, 1, 1.
*Equation
2
766, 2, 1.
816, 2, -1.
*Equation
3
817, 1, 1.
867, 1, -1.
2602, 1, 1.
*Equation
2
817, 2, 1.
867, 2, -1.
*Equation
3
868, 1, 1.
918, 1, -1.
2602, 1, 1.
*Equation
2
868, 2, 1.
918, 2, -1.
*Equation
3
919, 1, 1.
969, 1, -1.
2602, 1, 1.
*Equation
2
919, 2, 1.
969, 2, -1.
*Equation
3
970, 1, 1.
1020, 1, -1.
2602, 1, 1.
*Equation
2
970, 2, 1.
1020, 2, -1.
*Equation
3
1021, 1, 1.
1071, 1, -1.
2602, 1, 1.
*Equation
2
1021, 2, 1.
1071, 2, -1.
*Equation
3
1072, 1, 1.
1122, 1, -1.
2602, 1, 1.
*Equation
2
1072, 2, 1.
1122, 2, -1.
*Equation
3
1123, 1, 1.
1173, 1, -1.
2602, 1, 1.
*Equation
2
1123, 2, 1.
1173, 2, -1.
*Equation
3
1174, 1, 1.
1224, 1, -1.
2602, 1, 1.
*Equation
2
1174, 2, 1.
1224, 2, -1.
*Equation
3
1225, 1, 1.
1275, 1, -1.
2602, 1, 1.
*Equation
2
1225, 2, 1.
1275, 2, -1.
*Equation
3
1276, 1, 1.
1326, 1, -1.
2602, 1, 1.
*Equation
2
1276, 2, 1.
1326, 2, -1.
*Equation
3
1327, 1, 1.
1377, 1, -1.
2602, 1, 1.
*Equation
2
1327, 2, 1.
1377, 2, -1.
*Equation
3
1378, 1, 1.
1428, 1, -1.
2602, 1, 1.
*Equation
2
1378, 2, 1.
1428, 2, -1.
*Equation
3
1429, 1, 1.
1479, 1, -1.
2602, 1, 1.
*Equation
2
1429, 2, 1.
1479, 2, -1.
*Equation
3
1480, 1, 1.
1530, 1, -1.
2602, 1, 1.
*Equation
2
1480, 2, 1.
1530, 2, -1.
*Equation
3
1531, 1, 1.
1581, 1, -1.
2602, 1, 1.
*Equation
2
1531, 2, 1.
1581, 2, -1.
*Equation
3
1582, 1, 1.
1632, 1, -1.
2602, 1, 1.
*Equation
2
1582, 2, 1.
1632, 2, -1.
*Equation
3
1633, 1, 1.
1683, 1, -1.
2602, 1, 1.
*Equation
2
1633, 2, 1.
1683, 2, -1.
*Equation
3
1684, 1, 1.
1734, 1, -1.
2602, 1, 1.
*Equation
2
1684, 2, 1.
1734, 2, -1.
*Equation
3
1735, 1, 1.
1785, 1, -1.
2602, 1, 1.
*Equation
2
1735, 2, 1.
1785, 2, -1.
*Equation
3
1786, 1, 1.
1836, 1, -1.
2602, 1, 1.
*Equation
2
1786, 2, 1.
1836, 2, -1.
*Equation
3
1837, 1, 1.
1887, 1, -1.
2602, 1, 1.
*Equation
2
1837, 2, 1.
1887, 2, -1.
*Equation
3
1888, 1, 1.
1938, 1, -1.
2602, 1, 1.
*Equation
2
1888, 2, 1.
1938, 2, -1.
*Equation
3
1939, 1, 1.
1989, 1, -1.
2602, 1, 1.
*Equation
2
1939, 2, 1.
1989, 2, -1.
*Equation
3
1990, 1, 1.
2040, 1, -1.
2602, 1, 1.
*Equation
2
1990, 2, 1.
2040, 2, -1.
*Equation
3
2041, 1, 1.
2091, 1, -1.
2602, 1, 1.
*Equation
2
2041, 2, 1.
2091, 2, -1.
*Equation
3
2092, 1, 1.
2142, 1, -1.
2602, 1, 1.
*Equation
2
2092, 2, 1.
2142, 2, -1.
*Equation
3
2143, 1, 1.
2193, 1, -1.
2602, 1, 1.
*Equation
2
2143, 2, 1.
2193, 2, -1.
*Equation
3
2194, 1, 1.
2244, 1, -1.
2602, 1, 1.
*Equation
2
2194, 2, 1.
2244, 2, -1.
*Equation
3
2245, 1, 1.
2295, 1, -1.
2602, 1, 1.
*Equation
2
2245, 2, 1.
2295, 2, -1.
*Equation
3
2296, 1, 1.
2346, 1, -1.
2602, 1, 1.
*Equation
2
2296, 2, 1.
2346, 2, -1.
*Equation
3
2347, 1, 1.
2397, 1, -1.
2602, 1, 1.
*Equation
2
2347, 2, 1.
2397, 2, -1.
*Equation
3
2398, 1, 1.
2448, 1, -1.
2602, 1, 1.
*Equation
2
2398, 2, 1.
2448, 2, -1.
*Equation
3
2449, 1, 1.
2499, 1, -1.
2602, 1, 1.
*Equation
2
2449, 2, 1.
2499, 2, -1.
*Equation
3
2500, 1, 1.
2550, 1, -1.
2602, 1, 1.
*Equation
2
2500, 2, 1.
2550, 2, -1.
*Equation
2
2, 1, 1.
2552, 1, -1.
*Equation
2
2, 2, 1.
2552, 2, -1.
*Equation
2
3, 1, 1.
2553, 1, -1.
*Equation
2
3, 2, 1.
2553, 2, -1.
*Equation
2
4, 1, 1.
2554, 1, -1.
*Equation
2
4, 2, 1.
2554, 2, -1.
*Equation
2
5, 1, 1.
2555, 1, -1.
*Equation
2
5, 2, 1.
2555, 2, -1.
*Equation
2
6, 1, 1.
2556, 1, -1.
*Equation
2
6, 2, 1.
2556, 2, -1.
*Equation
2
7, 1, 1.
2557, 1, -1.
*Equation
2
7, 2, 1.
2557, 2, -1.
*Equation
2
8, 1, 1.
2558, 1, -1.
*Equation
2
8, 2, 1.
2558, 2, -1.
*Equation
2
9, 1, 1.
2559, 1, -1.
*Equation
2
9, 2, 1.
2559, 2, -1.
*Equation
2
10, 1, 1.
2560, 1, -1.
*Equation
2
10, 2, 1.
2560, 2, -1.
*Equation
2
11, 1, 1.
2561, 1, -1.
*Equation
2
11, 2, 1.
2561, 2, -1.
*Equation
2
12, 1, 1.
2562, 1, -1.
*Equation
2
12, 2, 1.
2562, 2, -1.
*Equation
2
13, 1, 1.
2563, 1, -1.
*Equation
2
13, 2, 1.
2563, 2, -1.
*Equation
2
14, 1, 1.
2564, 1, -1.
*Equation
2
14, 2, 1.
2564, 2, -1.
*Equation
2
15, 1, 1.
2565, 1, -1.
*Equation
2
15, 2, 1.
2565, 2, -1.
*Equation
2
16, 1, 1.
2566, 1, -1.
*Equation
2
16, 2, 1.
2566, 2, -1.
*Equation
2
17, 1, 1.
2567, 1, -1.
*Equation
2
17, 2, 1.
2567, 2, -1.
*Equation
2
18, 1, 1.
2568, 1, -1.
*Equation
2
18, 2, 1.
2568, 2, -1.
*Equation
2
19, 1, 1.
2569, 1, -1.
*Equation
2
19, 2, 1.
2569, 2, -1.
*Equation
2
20, 1, 1.
2570, 1, -1.
*Equation
2
20, 2, 1.
2570, 2, -1.
*Equation
2
21, 1, 1.
2571, 1, -1.
*Equation
2
21, 2, 1.
2571, 2, -1.
*Equation
2
22, 1, 1.
2572, 1, -1.
*Equation
2
22, 2, 1.
2572, 2, -1.
*Equation
2
23, 1, 1.
2573, 1, -1.
*Equation
2
23, 2, 1.
2573, 2, -1.
*Equation
2
24, 1, 1.
2574, 1, -1.
*Equation
2
24, 2, 1.
2574, 2, -1.
*Equation
2
25, 1, 1.
2575, 1, -1.
*Equation
2
25, 2, 1.
2575, 2, -1.
*Equation
2
26, 1, 1.
2576, 1, -1.
*Equation
2
26, 2, 1.
2576, 2, -1.
*Equation
2
27, 1, 1.
2577, 1, -1.
*Equation
2
27, 2, 1.
2577, 2, -1.
*Equation
2
28, 1, 1.
2578, 1, -1.
*Equation
2
28, 2, 1.
2578, 2, -1.
*Equation
2
29, 1, 1.
2579, 1, -1.
*Equation
2
29, 2, 1.
2579, 2, -1.
*Equation
2
30, 1, 1.
2580, 1, -1.
*Equation
2
30, 2, 1.
2580, 2, -1.
*Equation
2
31, 1, 1.
2581, 1, -1.
*Equation
2
31, 2, 1.
2581, 2, -1.
*Equation
2
32, 1, 1.
2582, 1, -1.
*Equation
2
32, 2, 1.
2582, 2, -1.
*Equation
2
33, 1, 1.
2583, 1, -1.
*Equation
2
33, 2, 1.
2583, 2, -1.
*Equation
2
34, 1, 1.
2584, 1, -1.
*Equation
2
34, 2, 1.
2584, 2, -1.
*Equation
2
35, 1, 1.
2585, 1, -1.
*Equation
2
35, 2, 1.
2585, 2, -1.
*Equation
2
36, 1, 1.
2586, 1, -1.
*Equation
2
36, 2, 1.
2586, 2, -1.
*Equation
2
37, 1, 1.
2587, 1, -1.
*Equation
2
37, 2, 1.
2587, 2, -1.
*Equation
2
38, 1, 1.
2588, 1, -1.
*Equation
2
38, 2, 1.
2588, 2, -1.
*Equation
2
39, 1, 1.
2589, 1, -1.
*Equation
2
39, 2, 1.
2589, 2, -1.
*Equation
2
40, 1, 1.
2590, 1, -1.
*Equation
2
40, 2, 1.
2590, 2, -1.
*Equation
2
41, 1, 1.
2591, 1, -1.
*Equation
2
41, 2, 1.
2591, 2, -1.
*Equation
2
42, 1, 1.
2592, 1, -1.
*Equation
2
42, 2, 1.
2592, 2, -1.
*Equation
2
43, 1, 1.
2593, 1, -1.
*Equation
2
43, 2, 1.
2593, 2, -1.
*Equation
2
44, 1, 1.
2594, 1, -1.
*Equation
2
44, 2, 1.
2594, 2, -1.
*Equation
2
45, 1, 1.
2595, 1, -1.
*Equation
2
45, 2, 1.
2595, 2, -1.
*Equation
2
46, 1, 1.
2596, 1, -1.
*Equation
2
46, 2, 1.
2596, 2, -1.
*Equation
2
47, 1, 1.
2597, 1, -1.
*Equation
2
47, 2, 1.
2597, 2, -1.
*Equation
2
48, 1, 1.
2598, 1, -1.
*Equation
2
48, 2, 1.
2598, 2, -1.
*Equation
2
49, 1, 1.
2599, 1, -1.
*Equation
2
49, 2, 1.
2599, 2, -1.
*Equation
2
50, 1, 1.
2600, 1, -1.
*Equation
2
50, 2, 1.
2600, 2, -1.
*Equation
2
2551, 1, 1.
2601, 1, -1.
*Equation
2
2551, 2, 1.
2601, 2, -1.
*Equation
2
1, 1, 1.
2551, 1, -1.
*Equation
2
1, 2, 1.
2551, 2, -1.
*Equation
2
51, 1, 1.
1, 1, -1.
*Equation
2
51, 2, 1.
1, 2, -1.
*STEP,NAME=STEP-1,PERTURBATION
*STEADY STATE DYNAMICS, DIRECT
1e-07, 100000.0, 30, 1
*BOUNDARY, TYPE=DISPLACEMENT
2602, 1, 1, 0.005
*RESTART,WRITE,frequency=0
*Output, field, variable=PRESELECT
*Output, field
*Element output, directions=YES
ELEDEN, ELEN, ENER, EVOL
*Output, history
*Energy Output
ALLAE, ALLCD, ALLEE, ALLFD, ALLJD, ALLKE, ALLPD, ALLSD, ALLSE, ALLVD, ALLWK, ETOTAL
*END STEP
