*Heading
Example RVE simulation
*Node
1,	0.000000e+00,	0.000000e+00
2,	2.500000e-03,	0.000000e+00
3,	5.000000e-03,	0.000000e+00
4,	7.500000e-03,	0.000000e+00
5,	1.000000e-02,	0.000000e+00
6,	1.250000e-02,	0.000000e+00
7,	1.500000e-02,	0.000000e+00
8,	1.750000e-02,	0.000000e+00
9,	2.000000e-02,	0.000000e+00
10,	2.250000e-02,	0.000000e+00
11,	2.500000e-02,	0.000000e+00
12,	2.750000e-02,	0.000000e+00
13,	3.000000e-02,	0.000000e+00
14,	3.250000e-02,	0.000000e+00
15,	3.500000e-02,	0.000000e+00
16,	3.750000e-02,	0.000000e+00
17,	4.000000e-02,	0.000000e+00
18,	4.250000e-02,	0.000000e+00
19,	4.500000e-02,	0.000000e+00
20,	4.750000e-02,	0.000000e+00
** ... 2582 like lines cut
*Nset, nset=Y0
2
3
4
5
6
7
8
9
10
11
12
13
14
15
16
17
18
19
20
21
** ... 29 like lines cut
*Nset, nset=Y1
2552
2553
2554
2555
2556
2557
2558
2559
2560
2561
2562
2563
2564
2565
2566
2567
2568
2569
2570
2571
** ... 29 like lines cut
*Nset, nset=X0
52
103
154
205
256
307
358
409
460
511
562
613
664
715
766
817
868
919
970
1021
** ... 29 like lines cut
*Nset, nset=X1
102
153
204
255
306
357
408
459
510
561
612
663
714
765
816
867
918
969
1020
1071
** ... 29 like lines cut
*Nset, nset=X0Y0
1
*Nset, nset=X0Y1
2551
*Nset, nset=X1Y0
51
*Nset, nset=X1Y1
2601
*Nset, nset=DRIVE
2602
*Element, type=CPE4R
1,	1,	2,	53,	52
2,	2,	3,	54,	53
3,	3,	4,	55,	54
4,	4,	5,	56,	55
5,	5,	6,	57,	56
6,	6,	7,	58,	57
7,	7,	8,	59,	58
8,	8,	9,	60,	59
9,	9,	10,	61,	60
10,	10,	11,	62,	61
11,	11,	12,	63,	62
12,	12,	13,	64,	63
13,	13,	14,	65,	64
14,	14,	15,	66,	65
15,	15,	16,	67,	66
16,	16,	17,	68,	67
17,	17,	18,	69,	68
18,	18,	19,	70,	69
19,	19,	20,	71,	70
20,	20,	21,	72,	71
** ... 2480 like lines cut
*Elset, elset=SET-0
6
55
56
57
97
106
124
146
147
148
154
162
173
174
175
197
203
204
205
211
** ... 384 like lines cut
*Solid Section, elset=SET-0, material=MAT-0
1.
*Material, name=MAT-0
*Density
2.650000e-15
*Elastic
5.000000e+05, 1.500000e-01
*Elset, elset=SET-1
1
2
3
4
5
7
8
9
10
11
12
13
14
15
16
17
18
19
20
21
** ... 2047 like lines cut
*Solid Section, elset=SET-1, material=MAT-1
1.
*Material, name=MAT-1
*Density
1.180000e-15
*Elastic
1.850000e+00, 3.500000e-01
*Viscoelastic, frequency=TABULAR
1.664865e-01, 0.000000e+00, 1.664865e-01, 0.000000e+00, 3.735114e-09
1.886486e-01, -3.783784e-02, 1.886486e-01, -3.783784e-02, 5.662013e-09
1.918919e-01, -7.027027e-02, 1.918919e-01, -7.027027e-02, 8.552291e-09
1.918919e-01, -1.027027e-01, 1.918919e-01, -1.027027e-01, 1.295444e-08
1.918919e-01, -1.243243e-01, 1.918919e-01, -1.243243e-01, 1.502207e-08
1.918919e-01, -1.405405e-01, 1.918919e-01, -1.405405e-01, 1.959127e-08
1.918919e-01, -1.567568e-01, 1.918919e-01, -1.567568e-01, 2.282183e-08
1.929730e-01, -1.621622e-01, 1.929730e-01, -1.621622e-01, 2.955564e-08
1.935135e-01, -1.675676e-01, 1.935135e-01, -1.675676e-01, 3.460337e-08
1.956757e-01, -1.675676e-01, 1.956757e-01, -1.675676e-01, 4.483909e-08
1.956757e-01, -1.729730e-01, 1.956757e-01, -1.729730e-01, 5.230987e-08
1.972973e-01, -1.729730e-01, 1.972973e-01, -1.729730e-01, 6.822076e-08
2.081081e-01, -1.891892e-01, 2.081081e-01, -1.891892e-01, 7.888970e-08
2.097297e-01, -2.054054e-01, 2.097297e-01, -2.054054e-01, 1.029187e-07
2.102703e-01, -2.054054e-01, 2.102703e-01, -2.054054e-01, 1.191002e-07
2.102703e-01, -2.486486e-01, 2.102703e-01, -2.486486e-01, 1.422929e-07
2.102703e-01, -2.540541e-01, 2.102703e-01, -2.540541e-01, 1.561388e-07
2.102703e-01, -2.540541e-01, 2.102703e-01, -2.540541e-01, 1.804756e-07
2.081081e-01, -2.540541e-01, 2.081081e-01, -2.540541e-01, 2.153377e-07
2.043243e-01, -2.810811e-01, 2.043243e-01, -2.810811e-01, 2.356698e-07
** ... 1101 like lines cut
*Elset, elset=SET-2
91
140
189
190
191
239
240
241
290
291
341
342
560
609
610
611
660
661
662
711
** ... 9 like lines cut
*Solid Section, elset=SET-2, material=MAT-2
1.
*Material, name=MAT-2
*Density
1.180000e-15
*Elastic
1.850000e+00, 3.500000e-01
*Viscoelastic, frequency=TABULAR
1.664865e-01, 0.000000e+00, 1.664865e-01, 0.000000e+00, 4.500000e-03
1.886486e-01, -3.783784e-02, 1.886486e-01, -3.783784e-02, 5.670000e-03
1.918919e-01, -7.027027e-02, 1.918919e-01, -7.027027e-02, 7.130000e-03
1.918919e-01, -1.027027e-01, 1.918919e-01, -1.027027e-01, 8.980000e-03
1.918919e-01, -1.243243e-01, 1.918919e-01, -1.243243e-01, 9.750000e-03
1.918919e-01, -1.405405e-01, 1.918919e-01, -1.405405e-01, 1.130000e-02
1.918919e-01, -1.567568e-01, 1.918919e-01, -1.567568e-01, 1.230000e-02
1.929730e-01, -1.621622e-01, 1.929730e-01, -1.621622e-01, 1.420000e-02
1.935135e-01, -1.675676e-01, 1.935135e-01, -1.675676e-01, 1.550000e-02
1.956757e-01, -1.675676e-01, 1.956757e-01, -1.675676e-01, 1.790000e-02
1.956757e-01, -1.729730e-01, 1.956757e-01, -1.729730e-01, 1.950000e-02
1.972973e-01, -1.729730e-01, 1.972973e-01, -1.729730e-01, 2.260000e-02
2.081081e-01, -1.891892e-01, 2.081081e-01, -1.891892e-01, 2.450000e-02
2.097297e-01, -2.054054e-01, 2.097297e-01, -2.054054e-01, 2.840000e-02
2.102703e-01, -2.054054e-01, 2.102703e-01, -2.054054e-01, 3.080000e-02
2.102703e-01, -2.486486e-01, 2.102703e-01, -2.486486e-01, 3.400000e-02
2.102703e-01, -2.540541e-01, 2.102703e-01, -2.540541e-01, 3.580000e-02
2.102703e-01, -2.540541e-01, 2.102703e-01, -2.540541e-01, 3.880000e-02
2.081081e-01, -2.540541e-01, 2.081081e-01, -2.540541e-01, 4.280000e-02
2.043243e-01, -2.810811e-01, 2.043243e-01, -2.810811e-01, 4.500000e-02
** ... 1101 like lines cut
*Nset, nset=X0ALL
1
52
103
154
205
256
307
358
409
460
511
562
613
664
715
766
817
868
919
970
** ... 31 like lines cut
*Nset, nset=X1ALL
51
102
153
204
255
306
357
408
459
510
561
612
663
714
765
816
867
918
969
1020
** ... 31 like lines cut
*Equation
3
X0ALL, 1, 1.
X1ALL, 1, -1.
DRIVE, 1, 1.
*Equation
2
X0ALL, 2, 1.
X1ALL, 2, -1.
*Nset, nset=Y0
2
3
4
5
6
7
8
9
10
11
12
13
14
15
16
17
18
19
20
21
** ... 29 like lines cut
*Nset, nset=Y1
2552
2553
2554
2555
2556
2557
2558
2559
2560
2561
2562
2563
2564
2565
2566
2567
2568
2569
2570
2571
** ... 29 like lines cut
*Equation
2
Y0, 1, 1.
Y1, 1, -1.
*Equation
2
Y0, 2, 1.
Y1, 2, -1.
*Nset, nset=X1Y0
51
*Nset, nset=X1Y1
2601
*Equation
2
X1Y0, 1, 1.
X1Y1, 1, -1.
*Equation
2
X1Y0, 2, 1.
X1Y1, 2, -1.
*Boundary, type=displacement
DRIVE, 1, 1, 0.0
*STEP,PERTURBATION
*STEADY STATE DYNAMICS, DIRECT
1e-07, 100000.0, 30, 1
*Boundary, type=displacement
DRIVE, 1, 1, 0.005
*END STEP
