*Heading
Synthetic test RVE
*Node
1,	0.000000e+00,	0.000000e+00
2,	2.500000e-03,	0.000000e+00
3,	5.000000e-03,	0.000000e+00
4,	7.500000e-03,	0.000000e+00
5,	1.000000e-02,	0.000000e+00
6,	1.250000e-02,	0.000000e+00
7,	1.500000e-02,	0.000000e+00
8,	0.000000e+00,	2.500000e-03
9,	2.500000e-03,	2.500000e-03
10,	5.000000e-03,	2.500000e-03
11,	7.500000e-03,	2.500000e-03
12,	1.000000e-02,	2.500000e-03
13,	1.250000e-02,	2.500000e-03
14,	1.500000e-02,	2.500000e-03
15,	0.000000e+00,	5.000000e-03
16,	2.500000e-03,	5.000000e-03
17,	5.000000e-03,	5.000000e-03
18,	7.500000e-03,	5.000000e-03
19,	1.000000e-02,	5.000000e-03
20,	1.250000e-02,	5.000000e-03
** ... 30 like lines cut
*Nset, nset=Y0
2
3
4
5
6
*Nset, nset=Y1
44
45
46
47
48
*Nset, nset=X0
8
15
22
29
36
*Nset, nset=X1
14
21
28
35
42
*Nset, nset=X0Y0
1
*Nset, nset=X0Y1
43
*Nset, nset=X1Y0
7
*Nset, nset=X1Y1
49
*Element, type=CPE4R
1,	1,	2,	9,	8
2,	2,	3,	10,	9
3,	3,	4,	11,	10
4,	4,	5,	12,	11
5,	5,	6,	13,	12
6,	6,	7,	14,	13
7,	8,	9,	16,	15
8,	9,	10,	17,	16
9,	10,	11,	18,	17
10,	11,	12,	19,	18
11,	12,	13,	20,	19
12,	13,	14,	21,	20
13,	15,	16,	23,	22
14,	16,	17,	24,	23
15,	17,	18,	25,	24
16,	18,	19,	26,	25
17,	19,	20,	27,	26
18,	20,	21,	28,	27
19,	22,	23,	30,	29
20,	23,	24,	31,	30
** ... 16 like lines cut
*Elset, elset=SET-0
15
16
21
22
*Solid Section, elset=SET-0, material=MAT-0
1.
*Material, name=MAT-0
*Density
2.650000e-15
*Elastic
5.000000e+05, 1.500000e-01
*Elset, elset=SET-1
9
10
14
17
20
23
27
28
*Solid Section, elset=SET-1, material=MAT-1
1.
*Material, name=MAT-1
*Density
1.180000e-15
*Elastic
1.850000e+00, 3.500000e-01
*Viscoelastic, frequency=TABULAR
1.664865e-01, 0.000000e+00, 1.664865e-01, 0.000000e+00, 3.106975e-09
1.935135e-01, -1.675676e-01, 1.935135e-01, -1.675676e-01, 2.878407e-08
2.102703e-01, -2.540541e-01, 2.102703e-01, -2.540541e-01, 1.298807e-07
1.929730e-01, -3.135135e-01, 1.929730e-01, -3.135135e-01, 4.110747e-07
1.827027e-01, -3.513514e-01, 1.827027e-01, -3.513514e-01, 1.028244e-06
1.902703e-01, -3.729730e-01, 1.902703e-01, -3.729730e-01, 2.353372e-06
1.913514e-01, -4.324324e-01, 1.913514e-01, -4.324324e-01, 5.401672e-06
2.172973e-01, -4.540541e-01, 2.172973e-01, -4.540541e-01, 9.472231e-06
2.259459e-01, -5.729730e-01, 2.259459e-01, -5.729730e-01, 1.880971e-05
2.551351e-01, -5.945946e-01, 2.551351e-01, -5.945946e-01, 3.283136e-05
3.037838e-01, -6.432432e-01, 3.037838e-01, -6.432432e-01, 6.487784e-05
3.172973e-01, -6.864865e-01, 3.172973e-01, -6.864865e-01, 1.067310e-04
3.562162e-01, -7.351351e-01, 3.562162e-01, -7.351351e-01, 2.065116e-04
4.340541e-01, -8.918919e-01, 4.340541e-01, -8.918919e-01, 3.429856e-04
4.918919e-01, -9.351351e-01, 4.918919e-01, -9.351351e-01, 5.248898e-04
5.129730e-01, -1.016216e+00, 5.129730e-01, -1.016216e+00, 8.278859e-04
7.027027e-01, -9.729730e-01, 7.027027e-01, -9.729730e-01, 1.290285e-03
8.162162e-01, -1.000000e+00, 8.162162e-01, -1.000000e+00, 2.071519e-03
9.081081e-01, -9.675676e-01, 9.081081e-01, -9.675676e-01, 3.138799e-03
1.064865e+00, -9.891892e-01, 1.064865e+00, -9.891892e-01, 5.195372e-03
** ... 121 like lines cut
*Elset, elset=SET-2
1
2
3
4
5
6
7
8
11
12
13
18
19
24
25
26
29
30
31
32
** ... 4 like lines cut
*Solid Section, elset=SET-2, material=MAT-2
1.
*Material, name=MAT-2
*Density
1.180000e-15
*Elastic
1.850000e+00, 3.500000e-01
*Viscoelastic, frequency=TABULAR
1.664865e-01, 0.000000e+00, 1.664865e-01, 0.000000e+00, 4.500000e-03
1.935135e-01, -1.675676e-01, 1.935135e-01, -1.675676e-01, 1.550000e-02
2.102703e-01, -2.540541e-01, 2.102703e-01, -2.540541e-01, 3.580000e-02
1.929730e-01, -3.135135e-01, 1.929730e-01, -3.135135e-01, 6.790000e-02
1.827027e-01, -3.513514e-01, 1.827027e-01, -3.513514e-01, 1.130000e-01
1.902703e-01, -3.729730e-01, 1.902703e-01, -3.729730e-01, 1.790000e-01
1.913514e-01, -4.324324e-01, 1.913514e-01, -4.324324e-01, 2.840000e-01
2.172973e-01, -4.540541e-01, 2.172973e-01, -4.540541e-01, 3.880000e-01
2.259459e-01, -5.729730e-01, 2.259459e-01, -5.729730e-01, 5.680000e-01
2.551351e-01, -5.945946e-01, 2.551351e-01, -5.945946e-01, 7.740000e-01
3.037838e-01, -6.432432e-01, 3.037838e-01, -6.432432e-01, 1.130000e+00
3.172973e-01, -6.864865e-01, 3.172973e-01, -6.864865e-01, 1.490000e+00
3.562162e-01, -7.351351e-01, 3.562162e-01, -7.351351e-01, 2.150000e+00
4.340541e-01, -8.918919e-01, 4.340541e-01, -8.918919e-01, 2.850000e+00
4.918919e-01, -9.351351e-01, 4.918919e-01, -9.351351e-01, 3.610000e+00
5.129730e-01, -1.016216e+00, 5.129730e-01, -1.016216e+00, 4.650000e+00
7.027027e-01, -9.729730e-01, 7.027027e-01, -9.729730e-01, 5.950000e+00
8.162162e-01, -1.000000e+00, 8.162162e-01, -1.000000e+00, 7.740000e+00
9.081081e-01, -9.675676e-01, 9.081081e-01, -9.675676e-01, 9.750000e+00
1.064865e+00, -9.891892e-01, 1.064865e+00, -9.891892e-01, 1.290000e+01
** ... 121 like lines cut
*Equation
4
49, 1, 1.
43, 1, -1.
X1Y0, 1, -1.
X0Y0, 1, 1.
*Equation
4
49, 2, 1.
43, 2, -1.
X1Y0, 2, -1.
X0Y0, 2, 1.
*Equation
4
14, 1, 1.
8, 1, -1.
X1Y0, 1, -1.
X0Y0, 1, 1.
*Equation
4
21, 1, 1.
15, 1, -1.
X1Y0, 1, -1.
X0Y0, 1, 1.
*Equation
4
28, 1, 1.
22, 1, -1.
X1Y0, 1, -1.
X0Y0, 1, 1.
*Equation
4
35, 1, 1.
29, 1, -1.
X1Y0, 1, -1.
X0Y0, 1, 1.
*Equation
4
42, 1, 1.
36, 1, -1.
X1Y0, 1, -1.
X0Y0, 1, 1.
*Equation
4
14, 2, 1.
8, 2, -1.
X1Y0, 2, -1.
X0Y0, 2, 1.
*Equation
4
21, 2, 1.
15, 2, -1.
X1Y0, 2, -1.
X0Y0, 2, 1.
*Equation
4
28, 2, 1.
22, 2, -1.
X1Y0, 2, -1.
X0Y0, 2, 1.
*Equation
4
35, 2, 1.
29, 2, -1.
X1Y0, 2, -1.
X0Y0, 2, 1.
*Equation
4
42, 2, 1.
36, 2, -1.
X1Y0, 2, -1.
X0Y0, 2, 1.
*Equation
4
44, 1, 1.
2, 1, -1.
X0Y1, 1, -1.
X0Y0, 1, 1.
*Equation
4
45, 1, 1.
3, 1, -1.
X0Y1, 1, -1.
X0Y0, 1, 1.
*Equation
4
46, 1, 1.
4, 1, -1.
X0Y1, 1, -1.
X0Y0, 1, 1.
*Equation
4
47, 1, 1.
5, 1, -1.
X0Y1, 1, -1.
X0Y0, 1, 1.
*Equation
4
48, 1, 1.
6, 1, -1.
X0Y1, 1, -1.
X0Y0, 1, 1.
*Equation
4
44, 2, 1.
2, 2, -1.
X0Y1, 2, -1.
X0Y0, 2, 1.
*Equation
4
45, 2, 1.
3, 2, -1.
X0Y1, 2, -1.
X0Y0, 2, 1.
*Equation
4
46, 2, 1.
4, 2, -1.
X0Y1, 2, -1.
X0Y0, 2, 1.
*Equation
4
47, 2, 1.
5, 2, -1.
X0Y1, 2, -1.
X0Y0, 2, 1.
*Equation
4
48, 2, 1.
6, 2, -1.
X0Y1, 2, -1.
X0Y0, 2, 1.
*Boundary
X0Y0, 1, 1
X0Y0, 2, 2
*Boundary
X1Y0, 2, 2
*Boundary
X0Y1, 1, 1
*Boundary, type=displacement
X1Y0, 1, 1, 0.0
*STEP,PERTURBATION
*STEADY STATE DYNAMICS, DIRECT
1e-07, 100000.0, 30, 1
*Boundary, type=displacement
X1Y0, 1, 1, 0.005
*END STEP
